<?xml version="1.0" encoding="UTF-8"?>

<!-- generated on 2023-07-02 20:22:52 by Eclipse SUMO netedit Version 1.17.0
<configuration xmlns:xsi="http://www.w3.org/2001/XMLSchema-instance" xsi:noNamespaceSchemaLocation="http://sumo.dlr.de/xsd/netconvertConfiguration.xsd">

    <input>
        <sumo-net-file value="C:\Users\十三州府\Desktop\code\mlks\myway\test1.net.xml"/>
    </input>

    <output>
        <output-file value="C:\Users\十三州府\Desktop\code\mlks\myway\test1.net.xml"/>
    </output>

    <processing>
        <geometry.min-radius.fix.railways value="false"/>
        <geometry.max-grade.fix value="false"/>
        <offset.disable-normalization value="true"/>
        <lefthand value="0"/>
    </processing>

    <junctions>
        <no-internal-links value="true"/>
        <no-turnarounds value="true"/>
        <junctions.corner-detail value="0"/>
        <junctions.limit-turn-speed value="-1.00"/>
        <rectangular-lane-cut value="0"/>
    </junctions>

    <pedestrian>
        <walkingareas value="0"/>
    </pedestrian>

</configuration>
-->

<net version="1.16" xmlns:xsi="http://www.w3.org/2001/XMLSchema-instance" xsi:noNamespaceSchemaLocation="http://sumo.dlr.de/xsd/net_file.xsd">

    <location netOffset="0.00,0.00" convBoundary="0.00,0.00,500.00,0.00" origBoundary="0.00,4000.00,0.00,4000.00" projParameter="!"/>

    <edge id="edge1" from="node1" to="node2" priority="-1" type="highway.primary">
        <lane id="edge1_0" index="0" speed="20.89" length="500.00" shape="0.00,-8.00 500.00,-8.00"/>
        <lane id="edge1_1" index="1" speed="20.89" length="500.00" shape="0.00,-4.80 500.00,-4.80"/>
        <lane id="edge1_2" index="2" speed="20.89" length="500.00" shape="0.00,-1.60 500.00,-1.60"/>
    </edge>

    <junction id="node1" type="dead_end" x="0.00" y="0.00" incLanes="" intLanes="" shape="0.00,0.00 0.00,-9.60"/>
    <junction id="node2" type="dead_end" x="500.00" y="0.00" incLanes="edge1_0 edge1_1 edge1_2" intLanes="" shape="500.00,-9.60 500.00,0.00"/>

</net>
