<routes>
    <vType id="car1" accel="1.0" decel="5.0" sigma="0.0" length="5.0" minGap="2.5" maxSpeed="8.89" lcStrategic="-1" lcKeepRight="0"/>
    <vType id="car2" accel="5.0" decel="5.0" sigma="0.0" length="5.0" minGap="2.5" maxSpeed="15.89" color="1,0,0"/>
    <route id="route1" edges="edge1"/>
    <vehicle id="vehicle0" type="car1" route="route1" depart="0" departLane="1" arrivalLane="1"/>
    <vehicle id="vehicle1" type="car1" route="route1" depart="4" departLane="0" arrivalLane="0"/>
    <vehicle id="vehicle2" type="car1" route="route1" depart="8" departLane="1" arrivalLane="1"/>
    <vehicle id="vehicle3" type="car2" route="route1" depart="12" departLane="0"/>
</routes>
