<?xml version="1.0" encoding="UTF-8"?>



<net version="1.16">
    <location netOffset="0.00,0.00" convBoundary="0.00,0.00,200.00,0.00" origBoundary="0.00,4000.00,0.00,4000.00" projParameter="!"/>
    <edge id="edge1" from="node1" to="node2" priority="-1" type="highway.primary">
        <lane id="edge1_0" index="0" speed="20.89" length="500.00" shape="0.00,-4.80 200.00,-4.80"/>
        <lane id="edge1_1" index="1" speed="20.89" length="500.00" shape="0.00,-1.60 200.00,-1.60"/>
    </edge>
    <junction id="node1" type="dead_end" x="0.00" y="0.00" incLanes="" intLanes="" shape="0.00,0.00 0.00,-6.40"/>
    <junction id="node2" type="dead_end" x="500.00" y="0.00" incLanes="edge1_0 edge1_1" intLanes="" shape="200.00,-6.40 200.00,0.00"/>
</net>
